
     RDKit          3D

 14 14  0  0  0  0  0  0  0  0999 V2000
   13.6262   -2.4029   24.3774 C   0  0  0  0  0  0  0  0  0  0  0  0
   13.0863   -1.0956   24.5273 O   0  0  0  0  0  0  0  0  0  0  0  0
   13.2345   -0.1289   23.5307 C   0  0  0  0  0  0  0  0  0  0  0  0
   13.9905   -0.3540   22.5499 O   0  0  0  0  0  0  0  0  0  0  0  0
   12.5092    1.1547   23.6131 C   0  0  0  0  0  0  0  0  0  0  0  0
   11.2799    1.2436   24.2850 C   0  0  0  0  0  0  0  0  0  0  0  0
   10.5972    2.4650   24.3488 C   0  0  0  0  0  0  0  0  0  0  0  0
   11.1416    3.6121   23.7522 C   0  0  0  0  0  0  0  0  0  0  0  0
   12.3652    3.5207   23.0780 C   0  0  0  0  0  0  0  0  0  0  0  0
   13.0411    2.3020   23.0044 C   0  0  0  0  0  0  0  0  0  0  0  0
   10.2988    5.1639   23.8578 S   0  0  0  0  0  6  0  0  0  0  0  0
   11.1835    6.2738   23.3719 O   0  0  0  0  0  0  0  0  0  0  0  0
    9.9526    5.4586   25.2863 O   0  0  0  0  0  0  0  0  0  0  0  0
    8.8612    5.1249   22.8984 N   0  0  0  0  0  0  0  0  0  0  0  0
  1  2  1  0
  2  3  1  0
  3  4  2  0
  3  5  1  0
  5  6  2  0
  6  7  1  0
  7  8  2  0
  8  9  1  0
  9 10  2  0
  8 11  1  0
 11 12  2  0
 11 13  2  0
 11 14  1  0
  5 10  1  0
M  END
>  <name>  (1) 
Mpro-x0161

$$$$

     RDKit          3D

 18 19  0  0  0  0  0  0  0  0999 V2000
    2.8798    1.4596   24.2081 O   0  0  0  0  0  0  0  0  0  0  0  0
    2.9401    2.3455   23.3138 C   0  0  0  0  0  0  0  0  0  0  0  0
    4.1043    2.4700   22.4876 N   0  0  0  0  0  0  0  0  0  0  0  0
    5.2115    1.5253   22.5403 C   0  0  0  0  0  0  0  0  0  0  0  0
    4.8764    0.2779   21.7155 C   0  0  0  0  0  0  0  0  0  0  0  0
    5.3118    0.4069   20.2751 C   0  0  0  0  0  0  0  0  0  0  0  0
    6.3967   -0.3471   19.8048 C   0  0  0  0  0  0  0  0  0  0  0  0
    6.7819   -0.2447   18.4684 C   0  0  0  0  0  0  0  0  0  0  0  0
    6.1130    0.5848   17.6289 N   0  0  0  0  0  0  0  0  0  0  0  0
    5.0605    1.3308   18.0549 C   0  0  0  0  0  0  0  0  0  0  0  0
    4.6374    1.2576   19.3854 C   0  0  0  0  0  0  0  0  0  0  0  0
    1.8538    3.2494   23.1056 N   0  0  0  0  0  0  0  0  0  0  0  0
    0.6535    3.3145   23.9337 C   0  0  0  0  0  0  0  0  0  0  0  0
    0.5269    4.7530   24.4644 C   0  0  0  0  0  0  0  0  0  0  0  0
   -0.8053    4.9838   25.1739 C   0  0  0  0  0  0  0  0  0  0  0  0
   -1.9724    4.6602   24.2396 C   0  0  0  0  0  0  0  0  0  0  0  0
   -1.8942    3.2066   23.7634 C   0  0  0  0  0  0  0  0  0  0  0  0
   -0.5587    2.9158   23.0704 C   0  0  0  0  0  0  0  0  0  0  0  0
  1  2  2  0
  2  3  1  0
  3  4  1  0
  4  5  1  0
  5  6  1  0
  6  7  2  0
  7  8  1  0
  8  9  2  0
  9 10  1  0
 10 11  2  0
  2 12  1  0
 12 13  1  0
 13 14  1  0
 14 15  1  0
 15 16  1  0
 16 17  1  0
 17 18  1  0
  6 11  1  0
 18 13  1  0
M  END
>  <name>  (2) 
Mpro-x0540

$$$$

     RDKit          3D

 13 14  0  0  0  0  0  0  0  0999 V2000
    9.0641    1.4080   21.1666 O   0  0  0  0  0  0  0  0  0  0  0  0
    9.4333    1.9239   22.2552 C   0  0  0  0  0  0  0  0  0  0  0  0
    9.1093    1.2445   23.5772 C   0  0  2  0  0  0  0  0  0  0  0  0
    9.6585   -0.1991   23.6739 C   0  0  2  0  0  0  0  0  0  0  0  0
   11.0507   -0.3500   23.0994 C   0  0  0  0  0  0  0  0  0  0  0  0
   11.4588   -1.3392   22.1986 C   0  0  0  0  0  0  0  0  0  0  0  0
   13.0810   -1.0594   21.8367 S   0  0  0  0  0  0  0  0  0  0  0  0
   13.2878    0.2875   22.8249 C   0  0  0  0  0  0  0  0  0  0  0  0
   12.0818    0.5359   23.4598 C   0  0  0  0  0  0  0  0  0  0  0  0
    8.5960   -1.0553   23.0173 C   0  0  0  0  0  0  0  0  0  0  0  0
    7.2783   -0.3498   23.3346 C   0  0  0  0  0  0  0  0  0  0  0  0
    7.6105    1.0918   23.7447 C   0  0  0  0  0  0  0  0  0  0  0  0
   10.1789    3.1433   22.2333 N   0  0  0  0  0  0  0  0  0  0  0  0
  1  2  2  0
  3  2  1  6
  3  4  1  0
  4  5  1  0
  5  6  2  0
  6  7  1  0
  7  8  1  0
  8  9  2  0
  4 10  1  6
 10 11  1  0
 11 12  1  0
  2 13  1  0
 12  3  1  0
  9  5  1  0
M  END
>  <name>  (3) 
Mpro-x0874

$$$$

     RDKit          3D

 15 16  0  0  0  0  0  0  0  0999 V2000
    9.8805    1.5600   21.3060 N   0  0  0  0  0  0  0  0  0  0  0  0
    9.7422    0.6112   21.9498 C   0  0  0  0  0  0  0  0  0  0  0  0
    9.5848   -0.5545   22.7566 C   0  0  0  0  0  0  0  0  0  0  0  0
    8.8732   -0.4922   23.9542 C   0  0  0  0  0  0  0  0  0  0  0  0
    8.8126   -1.6197   24.7741 C   0  0  0  0  0  0  0  0  0  0  0  0
    9.4809   -2.8089   24.4027 C   0  0  0  0  0  0  0  0  0  0  0  0
   10.1617   -2.8064   23.1618 C   0  0  0  0  0  0  0  0  0  0  0  0
   10.1972   -1.7006   22.3831 N   0  0  0  0  0  0  0  0  0  0  0  0
    9.4766   -4.0050   25.2394 N   0  0  0  0  0  0  0  0  0  0  0  0
    9.9125   -5.3021   24.6863 C   0  0  0  0  0  0  0  0  0  0  0  0
    8.9014   -5.8296   23.6531 C   0  0  0  0  0  0  0  0  0  0  0  0
    7.4468   -5.5767   24.0789 C   0  0  0  0  0  0  0  0  0  0  0  0
    7.2812   -5.8193   25.4694 O   0  0  0  0  0  0  0  0  0  0  0  0
    7.2834   -4.6169   26.2282 C   0  0  0  0  0  0  0  0  0  0  0  0
    8.7080   -4.0953   26.4935 C   0  0  0  0  0  0  0  0  0  0  0  0
  1  2  3  0
  2  3  1  0
  3  4  2  0
  4  5  1  0
  5  6  2  0
  6  7  1  0
  7  8  2  0
  6  9  1  0
  9 10  1  0
 10 11  1  0
 11 12  1  0
 12 13  1  0
 13 14  1  0
 14 15  1  0
  3  8  1  0
 15  9  1  0
M  END
>  <name>  (4) 
Mpro-x1077

$$$$

     RDKit          3D

 11 11  0  0  0  0  0  0  0  0999 V2000
    8.3810    0.0457   27.4534 C   0  0  0  0  0  0  0  0  0  0  0  0
    8.9446   -0.5315   26.1681 C   0  0  0  0  0  0  0  0  0  0  0  0
   10.0957    0.2434   25.7073 N   0  0  0  0  0  0  0  0  0  0  0  0
   10.9040   -0.1909   24.6078 C   0  0  0  0  0  0  0  0  0  0  0  0
   10.5687   -1.3343   23.8624 C   0  0  0  0  0  0  0  0  0  0  0  0
   11.3839   -1.7335   22.8089 C   0  0  0  0  0  0  0  0  0  0  0  0
   12.5254   -0.9955   22.4967 C   0  0  0  0  0  0  0  0  0  0  0  0
   13.3783   -1.4052   21.4041 C   0  0  0  0  0  0  0  0  0  0  0  0
   14.0616   -1.7332   20.5287 N   0  0  0  0  0  0  0  0  0  0  0  0
   12.8286    0.1414   23.2571 C   0  0  0  0  0  0  0  0  0  0  0  0
   12.0202    0.5136   24.2844 N   0  0  0  0  0  0  0  0  0  0  0  0
  1  2  1  0
  2  3  1  0
  3  4  1  0
  4  5  2  0
  5  6  1  0
  6  7  2  0
  7  8  1  0
  8  9  3  0
  7 10  1  0
 10 11  2  0
  4 11  1  0
M  END
>  <name>  (5) 
Mpro-x0305

$$$$

     RDKit          3D

 15 16  0  0  0  0  0  0  0  0999 V2000
    8.3019   -1.3857   20.8353 C   0  0  0  0  0  0  0  0  0  0  0  0
    7.3444   -2.0438   19.9430 N   0  0  0  0  0  0  0  0  0  0  0  0
    7.2564   -1.5930   18.5376 C   0  0  0  0  0  0  0  0  0  0  0  0
    6.4185   -0.3428   18.4454 C   0  0  0  0  0  0  0  0  0  0  0  0
    5.4353    0.0305   19.3397 C   0  0  0  0  0  0  0  0  0  0  0  0
    4.9680    1.2240   18.8492 C   0  0  0  0  0  0  0  0  0  0  0  0
    3.8984    2.0627   19.4768 C   0  0  0  0  0  0  0  0  0  0  0  0
    5.6239    1.5108   17.7454 O   0  0  0  0  0  0  0  0  0  0  0  0
    6.5053    0.5857   17.4681 N   0  0  0  0  0  0  0  0  0  0  0  0
    6.4150   -3.0333   20.4591 C   0  0  0  0  0  0  0  0  0  0  0  0
    5.6709   -3.6540   19.6615 O   0  0  0  0  0  0  0  0  0  0  0  0
    6.3036   -3.3414   21.8607 N   0  0  0  0  0  0  0  0  0  0  0  0
    6.6569   -4.6829   22.2666 C   0  0  0  0  0  0  0  0  0  0  0  0
    6.0410   -5.3612   23.4374 C   0  0  0  0  0  0  0  0  0  0  0  0
    5.7105   -5.8116   22.0033 C   0  0  0  0  0  0  0  0  0  0  0  0
  1  2  1  0
  2  3  1  0
  3  4  1  0
  4  5  1  0
  5  6  2  0
  6  7  1  0
  6  8  1  0
  8  9  1  0
  2 10  1  0
 10 11  2  0
 10 12  1  0
 12 13  1  0
 13 14  1  0
 14 15  1  0
  4  9  2  0
 15 13  1  0
M  END
>  <name>  (6) 
Mpro-x0397

$$$$

     RDKit          3D

  5  4  0  0  0  0  0  0  0  0999 V2000
    8.6774   -3.4418   23.3648 C   0  0  0  0  0  0  0  0  0  0  0  0
    8.1249   -4.7178   23.9905 C   0  0  0  0  0  0  0  0  0  0  0  0
    8.9431   -5.1314   25.1868 C   0  0  0  0  0  0  0  0  0  0  0  0
   10.1112   -5.6761   25.0476 N   0  0  0  0  0  0  0  0  0  0  0  0
    8.4354   -4.9039   26.4973 N   0  0  0  0  0  0  0  0  0  0  0  0
  1  2  1  0
  2  3  1  0
  3  4  2  0
  3  5  1  0
M  END
>  <name>  (7) 
Mpro-x0991

$$$$

     RDKit          3D

 16 17  0  0  0  0  0  0  0  0999 V2000
    9.1526    0.7309   20.7821 O   0  0  0  0  0  0  0  0  0  0  0  0
    8.5835   -0.2455   21.3400 C   0  0  0  0  0  0  0  0  0  0  0  0
    9.2374   -0.9356   22.4017 N   0  0  0  0  0  0  0  0  0  0  0  0
   10.5048   -0.4734   22.8491 C   0  0  0  0  0  0  0  0  0  0  0  0
   10.5689    0.3720   23.9579 C   0  0  0  0  0  0  0  0  0  0  0  0
   11.7939    0.9029   24.3555 C   0  0  0  0  0  0  0  0  0  0  0  0
   12.9553    0.5879   23.6448 C   0  0  0  0  0  0  0  0  0  0  0  0
   12.8912   -0.2521   22.5293 C   0  0  0  0  0  0  0  0  0  0  0  0
   11.6633   -0.7759   22.1226 C   0  0  0  0  0  0  0  0  0  0  0  0
    7.2691   -0.6341   20.9432 N   0  0  0  0  0  0  0  0  0  0  0  0
    6.5982    0.0317   19.8762 C   0  0  0  0  0  0  0  0  0  0  0  0
    5.3781    0.6663   20.1128 C   0  0  0  0  0  0  0  0  0  0  0  0
    4.7388    1.3335   19.0714 C   0  0  0  0  0  0  0  0  0  0  0  0
    5.3221    1.3377   17.8023 C   0  0  0  0  0  0  0  0  0  0  0  0
    6.5087    0.7125   17.5913 N   0  0  0  0  0  0  0  0  0  0  0  0
    7.1568    0.0681   18.5926 C   0  0  0  0  0  0  0  0  0  0  0  0
  1  2  2  0
  2  3  1  0
  3  4  1  0
  4  5  2  0
  5  6  1  0
  6  7  2  0
  7  8  1  0
  8  9  2  0
  2 10  1  0
 10 11  1  0
 11 12  2  0
 12 13  1  0
 13 14  2  0
 14 15  1  0
 15 16  2  0
  4  9  1  0
 11 16  1  0
M  END
>  <name>  (8) 
Mpro-x0434

$$$$

     RDKit          3D

 19 21  0  0  0  0  0  0  0  0999 V2000
   13.7505   -1.2707   23.6082 C   0  0  0  0  0  0  0  0  0  0  0  0
   12.3371   -0.8902   23.7325 N   0  0  0  0  0  0  0  0  0  0  0  0
   11.4940   -1.8571   23.0030 C   0  0  0  0  0  0  0  0  0  0  0  0
   10.0262   -1.4883   23.1689 C   0  0  0  0  0  0  0  0  0  0  0  0
    9.8374   -0.1119   22.7018 N   0  0  0  0  0  0  0  0  0  0  0  0
   10.6729    0.8948   23.3571 C   0  0  0  0  0  0  0  0  0  0  0  0
   12.1374    0.4809   23.2177 C   0  0  0  0  0  0  0  0  0  0  0  0
    9.0420    0.2103   21.5520 C   0  0  0  0  0  0  0  0  0  0  0  0
    9.0034    1.3990   21.1295 O   0  0  0  0  0  0  0  0  0  0  0  0
    8.2601   -0.8619   20.8483 C   0  0  0  0  0  0  0  0  0  0  0  0
    7.3777   -0.2916   19.7961 C   0  0  0  0  0  0  0  0  0  0  0  0
    7.6131   -0.3126   18.4281 C   0  0  0  0  0  0  0  0  0  0  0  0
    6.6303    0.3508   17.7772 N   0  0  0  0  0  0  0  0  0  0  0  0
    5.7916    0.7949   18.7275 C   0  0  0  0  0  0  0  0  0  0  0  0
    4.6650    1.5207   18.5217 N   0  0  0  0  0  0  0  0  0  0  0  0
    3.9248    1.9055   19.6030 C   0  0  0  0  0  0  0  0  0  0  0  0
    4.3271    1.5633   20.9138 C   0  0  0  0  0  0  0  0  0  0  0  0
    5.4993    0.8145   21.1125 C   0  0  0  0  0  0  0  0  0  0  0  0
    6.2134    0.4347   19.9770 C   0  0  0  0  0  0  0  0  0  0  0  0
  1  2  1  0
  2  3  1  0
  3  4  1  0
  4  5  1  0
  5  6  1  0
  6  7  1  0
  5  8  1  0
  8  9  2  0
  8 10  1  0
 10 11  1  0
 11 12  2  0
 12 13  1  0
 13 14  1  0
 14 15  2  0
 15 16  1  0
 16 17  2  0
 17 18  1  0
 18 19  2  0
  7  2  1  0
 19 11  1  0
 19 14  1  0
M  END
>  <name>  (9) 
Mpro-x1093

$$$$

     RDKit          3D

 18 19  0  0  0  0  0  0  0  0999 V2000
    8.1677    2.4244   23.4204 O   0  0  0  0  0  0  0  0  0  0  0  0
    7.6646    1.4450   24.0411 C   0  0  0  0  0  0  0  0  0  0  0  0
    8.4550    0.7191   24.9865 N   0  0  0  0  0  0  0  0  0  0  0  0
    9.8460    1.0492   25.2674 C   0  0  0  0  0  0  0  0  0  0  0  0
   10.7453    0.4333   24.2369 C   0  0  0  0  0  0  0  0  0  0  0  0
   11.9192    1.0954   23.8504 C   0  0  0  0  0  0  0  0  0  0  0  0
   12.7694    0.5182   22.9068 C   0  0  0  0  0  0  0  0  0  0  0  0
   12.4516   -0.7242   22.3472 C   0  0  0  0  0  0  0  0  0  0  0  0
   13.3099   -1.3013   21.3581 C   0  0  0  0  0  0  0  0  0  0  0  0
   14.0048   -1.7613   20.5576 N   0  0  0  0  0  0  0  0  0  0  0  0
   11.2961   -1.4008   22.7440 C   0  0  0  0  0  0  0  0  0  0  0  0
   10.4535   -0.8324   23.6953 C   0  0  0  0  0  0  0  0  0  0  0  0
    6.2817    1.0918   23.8419 N   0  0  0  0  0  0  0  0  0  0  0  0
    5.4605    0.8585   25.0417 C   0  0  0  0  0  0  0  0  0  0  0  0
    4.0722    0.3191   24.6781 C   0  0  0  0  0  0  0  0  0  0  0  0
    3.4695    1.0942   23.6614 O   0  0  0  0  0  0  0  0  0  0  0  0
    4.2301    1.0007   22.4737 C   0  0  0  0  0  0  0  0  0  0  0  0
    5.6068    1.6412   22.6616 C   0  0  0  0  0  0  0  0  0  0  0  0
  1  2  2  0
  2  3  1  0
  3  4  1  0
  4  5  1  0
  5  6  2  0
  6  7  1  0
  7  8  2  0
  8  9  1  0
  9 10  3  0
  8 11  1  0
 11 12  2  0
  2 13  1  0
 13 14  1  0
 14 15  1  0
 15 16  1  0
 16 17  1  0
 17 18  1  0
  5 12  1  0
 18 13  1  0
M  END
>  <name>  (10) 
Mpro-x1249

$$$$

     RDKit          3D

 14 15  0  0  0  0  0  0  0  0999 V2000
    9.2923   -5.2963   26.3075 C   0  0  0  0  0  0  0  0  0  0  0  0
    9.0903   -3.9693   25.6443 C   0  0  0  0  0  0  0  0  0  0  0  0
    8.5430   -2.8755   26.2315 N   0  0  0  0  0  0  0  0  0  0  0  0
    8.4511   -1.8194   25.4097 N   0  0  0  0  0  0  0  0  0  0  0  0
    8.9173   -2.0709   24.1613 C   0  0  0  0  0  0  0  0  0  0  0  0
    8.8866   -1.0951   23.0113 C   0  0  0  0  0  0  0  0  0  0  0  0
   10.1770   -0.4459   22.7552 N   0  0  0  0  0  0  0  0  0  0  0  0
   10.5738    0.4284   23.8586 C   0  0  0  0  0  0  0  0  0  0  0  0
   11.7687    1.2817   23.4171 C   0  0  0  0  0  0  0  0  0  0  0  0
   12.8383    0.4479   22.7728 C   0  0  0  0  0  0  0  0  0  0  0  0
   12.5495   -0.7228   22.1673 C   0  0  0  0  0  0  0  0  0  0  0  0
   13.5307   -1.4339   21.5531 F   0  0  0  0  0  0  0  0  0  0  0  0
   11.2462   -1.4102   22.4162 C   0  0  0  0  0  0  0  0  0  0  0  0
    9.4522   -3.6587   24.0421 S   0  0  0  0  0  0  0  0  0  0  0  0
  1  2  1  0
  2  3  2  0
  3  4  1  0
  4  5  2  0
  5  6  1  0
  6  7  1  0
  7  8  1  0
  8  9  1  0
  9 10  1  0
 10 11  2  0
 11 12  1  0
 11 13  1  0
  5 14  1  0
 14  2  1  0
 13  7  1  0
M  END
>  <name>  (11) 
Mpro-x0395

$$$$

     RDKit          3D

 18 19  0  0  0  0  0  0  0  0999 V2000
   13.2354   -1.0641   22.5275 C   0  0  0  0  0  0  0  0  0  0  0  0
   12.4544   -1.3254   23.7432 N   0  0  0  0  0  0  0  0  0  0  0  0
   11.7790   -0.0914   24.1595 C   0  0  0  0  0  0  0  0  0  0  0  0
   11.0622   -0.3304   25.4669 C   0  0  0  0  0  0  0  0  0  0  0  0
   10.1299   -1.4629   25.3218 N   0  0  0  0  0  0  0  0  0  0  0  0
   10.6768   -2.7034   24.7737 C   0  0  0  0  0  0  0  0  0  0  0  0
   11.4613   -2.3905   23.4962 C   0  0  0  0  0  0  0  0  0  0  0  0
    8.7974   -1.3975   25.8517 C   0  0  0  0  0  0  0  0  0  0  0  0
    7.9537   -2.3026   25.6126 O   0  0  0  0  0  0  0  0  0  0  0  0
    8.4181   -0.2022   26.6383 C   0  0  0  0  0  0  0  0  0  0  0  0
    7.3847   -0.4336   27.5634 O   0  0  0  0  0  0  0  0  0  0  0  0
    6.9807    0.6046   28.4033 C   0  0  0  0  0  0  0  0  0  0  0  0
    7.7391    1.7901   28.5535 C   0  0  0  0  0  0  0  0  0  0  0  0
    7.2750    2.8225   29.3554 C   0  0  0  0  0  0  0  0  0  0  0  0
    6.0459    2.7040   30.0061 C   0  0  0  0  0  0  0  0  0  0  0  0
    5.5538    3.8161   30.8781 C   0  0  0  0  0  0  0  0  0  0  0  0
    5.3064    1.5198   29.8781 C   0  0  0  0  0  0  0  0  0  0  0  0
    5.7751    0.4749   29.0828 C   0  0  0  0  0  0  0  0  0  0  0  0
  1  2  1  0
  2  3  1  0
  3  4  1  0
  4  5  1  0
  5  6  1  0
  6  7  1  0
  5  8  1  0
  8  9  2  0
  8 10  1  0
 10 11  1  0
 11 12  1  0
 12 13  2  0
 13 14  1  0
 14 15  2  0
 15 16  1  0
 15 17  1  0
 17 18  2  0
  7  2  1  0
 12 18  1  0
M  END
>  <name>  (12) 
Mpro-x0354

$$$$

     RDKit          3D

  7  7  0  0  0  0  0  0  0  0999 V2000
    3.6736    2.1628   19.5683 N   0  0  0  0  0  0  0  0  0  0  0  0
    4.6893    1.2650   19.1311 C   0  0  0  0  0  0  0  0  0  0  0  0
    5.1089    0.2084   19.9451 C   0  0  0  0  0  0  0  0  0  0  0  0
    6.0573   -0.6523   19.4986 N   0  0  0  0  0  0  0  0  0  0  0  0
    6.6115   -0.4948   18.2667 C   0  0  0  0  0  0  0  0  0  0  0  0
    6.2256    0.5305   17.4624 N   0  0  0  0  0  0  0  0  0  0  0  0
    5.2778    1.4103   17.8709 C   0  0  0  0  0  0  0  0  0  0  0  0
  1  2  1  0
  2  3  2  0
  3  4  1  0
  4  5  2  0
  5  6  1  0
  6  7  2  0
  2  7  1  0
M  END
>  <name>  (13) 
Mpro-x0995

$$$$

     RDKit          3D

 15 16  0  0  0  0  0  0  0  0999 V2000
    9.8935   -0.3868   24.9189 C   0  0  0  0  0  0  0  0  0  0  0  0
   11.0538   -0.3193   24.0266 N   0  0  0  0  0  0  0  0  0  0  0  0
   11.7271   -1.5837   23.6951 C   0  0  0  0  0  0  0  0  0  0  0  0
   12.7177   -1.4293   22.5424 C   0  0  0  0  0  0  0  0  0  0  0  0
   13.6628   -0.2574   22.8020 C   0  0  0  0  0  0  0  0  0  0  0  0
   12.8808    1.0147   23.0163 C   0  0  0  0  0  0  0  0  0  0  0  0
   13.4240    2.2536   22.6355 C   0  0  0  0  0  0  0  0  0  0  0  0
   12.7035    3.4346   22.8376 C   0  0  0  0  0  0  0  0  0  0  0  0
   11.4352    3.3906   23.4357 C   0  0  0  0  0  0  0  0  0  0  0  0
   10.9004    2.1605   23.8305 C   0  0  0  0  0  0  0  0  0  0  0  0
   11.6136    0.9614   23.6336 C   0  0  0  0  0  0  0  0  0  0  0  0
   10.4984    4.8582   23.7433 S   0  0  0  0  0  6  0  0  0  0  0  0
   10.0357    4.8384   25.1684 O   0  0  0  0  0  0  0  0  0  0  0  0
    9.2803    4.9000   22.8692 O   0  0  0  0  0  0  0  0  0  0  0  0
   11.4512    6.2766   23.4730 N   0  0  0  0  0  0  0  0  0  0  0  0
  1  2  1  0
  2  3  1  0
  3  4  1  0
  4  5  1  0
  5  6  1  0
  6  7  2  0
  7  8  1  0
  8  9  2  0
  9 10  1  0
 10 11  2  0
  9 12  1  0
 12 13  2  0
 12 14  2  0
 12 15  1  0
 11  2  1  0
  6 11  1  0
M  END
>  <name>  (14) 
Mpro-x0195

$$$$

     RDKit          3D

 11 11  0  0  0  0  0  0  0  0999 V2000
    9.9959   -0.6362   22.5372 C   0  0  0  0  0  0  0  0  0  0  0  0
    9.1328   -0.0360   21.4728 C   0  0  0  0  0  0  0  0  0  0  0  0
    9.4854    1.0420   20.9299 O   0  0  0  0  0  0  0  0  0  0  0  0
    7.8832   -0.6432   21.1181 N   0  0  0  0  0  0  0  0  0  0  0  0
    7.0465   -0.0854   20.0952 C   0  0  0  0  0  0  0  0  0  0  0  0
    7.4416   -0.1580   18.7533 C   0  0  0  0  0  0  0  0  0  0  0  0
    6.6599    0.3704   17.7781 N   0  0  0  0  0  0  0  0  0  0  0  0
    5.4864    0.9868   18.0657 C   0  0  0  0  0  0  0  0  0  0  0  0
    5.0519    1.0903   19.3884 C   0  0  0  0  0  0  0  0  0  0  0  0
    5.8336    0.5494   20.4199 C   0  0  0  0  0  0  0  0  0  0  0  0
    5.3858    0.6620   21.8522 C   0  0  0  0  0  0  0  0  0  0  0  0
  1  2  1  0
  2  3  2  0
  2  4  1  0
  4  5  1  0
  5  6  2  0
  6  7  1  0
  7  8  2  0
  8  9  1  0
  9 10  2  0
 10 11  1  0
  5 10  1  0
M  END
>  <name>  (15) 
Mpro-x0107

$$$$

     RDKit          3D

 16 17  0  0  0  0  0  0  0  0999 V2000
    9.0038    6.2374   22.6055 C   0  0  0  0  0  0  0  0  0  0  0  0
   10.2704    5.9501   23.3468 C   0  0  0  0  0  0  0  0  0  0  0  0
   10.3135    6.1676   24.5849 O   0  0  0  0  0  0  0  0  0  0  0  0
   11.4156    5.4214   22.6602 N   0  0  0  0  0  0  0  0  0  0  0  0
   12.6558    5.0471   23.3415 C   0  0  0  0  0  0  0  0  0  0  0  0
   13.0625    3.6123   22.9681 C   0  0  0  0  0  0  0  0  0  0  0  0
   12.0776    2.5491   23.4053 C   0  0  0  0  0  0  0  0  0  0  0  0
   10.9544    2.7018   24.2203 C   0  0  0  0  0  0  0  0  0  0  0  0
   10.3329    1.5160   24.3956 N   0  0  0  0  0  0  0  0  0  0  0  0
   11.0537    0.6024   23.7218 C   0  0  0  0  0  0  0  0  0  0  0  0
   10.8088   -0.7718   23.6269 C   0  0  0  0  0  0  0  0  0  0  0  0
   11.7039   -1.5562   22.8768 C   0  0  0  0  0  0  0  0  0  0  0  0
   12.8162   -0.9597   22.2461 C   0  0  0  0  0  0  0  0  0  0  0  0
   13.6736   -1.7275   21.5261 F   0  0  0  0  0  0  0  0  0  0  0  0
   13.0396    0.4290   22.3613 C   0  0  0  0  0  0  0  0  0  0  0  0
   12.1308    1.1888   23.1089 C   0  0  0  0  0  0  0  0  0  0  0  0
  1  2  1  0
  2  3  2  0
  2  4  1  0
  4  5  1  0
  5  6  1  0
  6  7  1  0
  7  8  2  0
  8  9  1  0
  9 10  1  0
 10 11  2  0
 11 12  1  0
 12 13  2  0
 13 14  1  0
 13 15  1  0
 15 16  2  0
 16  7  1  0
 10 16  1  0
M  END
>  <name>  (16) 
Mpro-x0104

$$$$

     RDKit          3D

 18 19  0  0  0  0  0  0  0  0999 V2000
    2.7213    4.3257   25.2134 F   0  0  0  0  0  0  0  0  0  0  0  0
    1.4539    3.8424   25.1879 C   0  0  0  0  0  0  0  0  0  0  0  0
    0.4507    4.5549   25.8543 C   0  0  0  0  0  0  0  0  0  0  0  0
   -0.8589    4.0729   25.8830 C   0  0  0  0  0  0  0  0  0  0  0  0
   -1.1716    2.8710   25.2487 C   0  0  0  0  0  0  0  0  0  0  0  0
   -0.1752    2.1517   24.5822 C   0  0  0  0  0  0  0  0  0  0  0  0
    1.1490    2.6312   24.5352 C   0  0  0  0  0  0  0  0  0  0  0  0
    2.1916    1.8439   23.8220 C   0  0  0  0  0  0  0  0  0  0  0  0
    2.0632    0.5942   23.7473 O   0  0  0  0  0  0  0  0  0  0  0  0
    3.3239    2.4794   23.1975 N   0  0  0  0  0  0  0  0  0  0  0  0
    4.3139    1.7429   22.4079 C   0  0  0  0  0  0  0  0  0  0  0  0
    3.7972    1.5949   20.9718 C   0  0  0  0  0  0  0  0  0  0  0  0
    4.8336    1.1881   19.9457 C   0  0  0  0  0  0  0  0  0  0  0  0
    5.8374    0.2426   20.2159 C   0  0  0  0  0  0  0  0  0  0  0  0
    6.7093   -0.1485   19.1933 C   0  0  0  0  0  0  0  0  0  0  0  0
    6.5731    0.3623   17.9427 N   0  0  0  0  0  0  0  0  0  0  0  0
    5.5996    1.2587   17.6487 C   0  0  0  0  0  0  0  0  0  0  0  0
    4.7131    1.6815   18.6386 C   0  0  0  0  0  0  0  0  0  0  0  0
  1  2  1  0
  2  3  2  0
  3  4  1  0
  4  5  2  0
  5  6  1  0
  6  7  2  0
  7  8  1  0
  8  9  2  0
  8 10  1  0
 10 11  1  0
 11 12  1  0
 12 13  1  0
 13 14  2  0
 14 15  1  0
 15 16  2  0
 16 17  1  0
 17 18  2  0
  2  7  1  0
 13 18  1  0
M  END
>  <name>  (17) 
Mpro-x0426

$$$$

     RDKit          3D

 20 20  0  0  0  0  0  0  0  0999 V2000
    7.5872    4.9594   22.5507 C   0  0  0  0  0  0  0  0  0  0  0  0
    7.1566    3.6087   23.0111 C   0  0  0  0  0  0  0  0  0  0  0  0
    6.0738    3.4549   23.6201 O   0  0  0  0  0  0  0  0  0  0  0  0
    8.0789    2.5486   22.9967 N   0  0  0  0  0  0  0  0  0  0  0  0
    7.8524    1.2938   22.3503 C   0  0  0  0  0  0  0  0  0  0  0  0
    6.4732    0.5970   22.4223 C   0  0  0  0  0  0  0  0  0  0  0  0
    6.0483    0.4733   20.9834 C   0  0  0  0  0  0  0  0  0  0  0  0
    5.2458    1.4767   20.4257 C   0  0  0  0  0  0  0  0  0  0  0  0
    5.1051    1.5754   19.0426 C   0  0  0  0  0  0  0  0  0  0  0  0
    5.8145    0.7108   18.2020 C   0  0  0  0  0  0  0  0  0  0  0  0
    6.6743   -0.2414   18.7449 C   0  0  0  0  0  0  0  0  0  0  0  0
    6.7854   -0.3674   20.1257 C   0  0  0  0  0  0  0  0  0  0  0  0
    5.6714    0.7885   16.8238 O   0  0  0  0  0  0  0  0  0  0  0  0
    9.0541    0.4436   22.2899 C   0  0  0  0  0  0  0  0  0  0  0  0
   10.0450    0.9364   21.6957 O   0  0  0  0  0  0  0  0  0  0  0  0
    9.0607   -0.9345   22.6406 N   0  0  0  0  0  0  0  0  0  0  0  0
    9.9297   -1.8396   21.9056 C   0  0  0  0  0  0  0  0  0  0  0  0
   11.3109   -1.6800   22.3612 C   0  0  0  0  0  0  0  0  0  0  0  0
   12.4343   -1.6655   22.7942 C   0  0  0  0  0  0  0  0  0  0  0  0
   14.1343   -1.8497   23.5887 Br  0  0  0  0  0  0  0  0  0  0  0  0
  1  2  1  0
  2  3  2  0
  2  4  1  0
  4  5  1  0
  5  6  1  0
  6  7  1  0
  7  8  2  0
  8  9  1  0
  9 10  2  0
 10 11  1  0
 11 12  2  0
 10 13  1  0
  5 14  1  0
 14 15  2  0
 14 16  1  0
 16 17  1  0
 17 18  1  0
 18 19  3  0
 19 20  1  0
 12  7  1  0
M  END
>  <name>  (18) 
Mpro-x0967

$$$$

     RDKit          3D

 16 17  0  0  0  0  0  0  0  0999 V2000
   10.8548    2.7503   23.5861 C   0  0  0  0  0  0  0  0  0  0  0  0
    9.7196    1.8104   22.6045 S   0  0  0  0  0  6  0  0  0  0  0  0
   10.2021    1.7833   21.1849 O   0  0  0  0  0  0  0  0  0  0  0  0
    8.3488    2.4134   22.6841 O   0  0  0  0  0  0  0  0  0  0  0  0
    9.6563    0.1920   23.2356 C   0  0  0  0  0  0  0  0  0  0  0  0
    9.7719   -0.9076   22.3865 C   0  0  0  0  0  0  0  0  0  0  0  0
    9.6076   -2.1904   22.8920 C   0  0  0  0  0  0  0  0  0  0  0  0
    9.3752   -2.3947   24.2682 C   0  0  0  0  0  0  0  0  0  0  0  0
    9.3045   -1.2690   25.1121 C   0  0  0  0  0  0  0  0  0  0  0  0
    9.4244    0.0091   24.5953 C   0  0  0  0  0  0  0  0  0  0  0  0
    9.2092   -3.7234   24.8057 N   0  0  0  0  0  0  0  0  0  0  0  0
    9.9595   -4.8458   24.2269 C   0  0  0  0  0  0  0  0  0  0  0  0
    9.1720   -6.1301   24.4165 C   0  0  0  0  0  0  0  0  0  0  0  0
    8.9174   -6.3390   25.8439 N   0  0  0  0  0  0  0  0  0  0  0  0
    8.0857   -5.2582   26.3826 C   0  0  0  0  0  0  0  0  0  0  0  0
    8.7600   -3.9024   26.1971 C   0  0  0  0  0  0  0  0  0  0  0  0
  1  2  1  0
  2  3  2  0
  2  4  2  0
  2  5  1  0
  5  6  2  0
  6  7  1  0
  7  8  2  0
  8  9  1  0
  9 10  2  0
  8 11  1  0
 11 12  1  0
 12 13  1  0
 13 14  1  0
 14 15  1  0
 15 16  1  0
 10  5  1  0
 16 11  1  0
M  END
>  <name>  (19) 
Mpro-x2193

$$$$

     RDKit          3D

 11 11  0  0  0  0  0  0  0  0999 V2000
   13.2392   -0.6049   22.7043 Br  0  0  0  0  0  0  0  0  0  0  0  0
   12.4774    1.1021   23.1186 C   0  0  0  0  0  0  0  0  0  0  0  0
   11.2357    1.1930   23.7599 C   0  0  0  0  0  0  0  0  0  0  0  0
   10.6812    2.4475   24.0271 C   0  0  0  0  0  0  0  0  0  0  0  0
   11.3691    3.6095   23.6554 C   0  0  0  0  0  0  0  0  0  0  0  0
   10.6259    5.1605   23.8972 S   0  0  0  0  0  6  0  0  0  0  0  0
    9.2400    5.2319   22.8891 N   0  0  0  0  0  0  0  0  0  0  0  0
   10.2125    5.3024   25.3295 O   0  0  0  0  0  0  0  0  0  0  0  0
   11.5714    6.2585   23.5107 O   0  0  0  0  0  0  0  0  0  0  0  0
   12.6104    3.5160   23.0193 C   0  0  0  0  0  0  0  0  0  0  0  0
   13.1642    2.2645   22.7559 C   0  0  0  0  0  0  0  0  0  0  0  0
  1  2  1  0
  2  3  2  0
  3  4  1  0
  4  5  2  0
  5  6  1  0
  6  7  1  0
  6  8  2  0
  6  9  2  0
  5 10  1  0
 10 11  2  0
 11  2  1  0
M  END
>  <name>  (20) 
Mpro-x0946

$$$$

     RDKit          3D

 16 17  0  0  0  0  0  0  0  0999 V2000
    9.4470    1.1192   21.0060 O   0  0  0  0  0  0  0  0  0  0  0  0
    8.8561    0.2654   21.7221 C   0  0  0  0  0  0  0  0  0  0  0  0
    9.3893   -0.1228   23.0548 C   0  0  0  0  0  0  0  0  0  0  0  0
   10.9135   -0.0752   23.1249 C   0  0  0  0  0  0  0  0  0  0  0  0
   11.5772   -1.0473   22.1108 C   0  0  0  0  0  0  0  0  0  0  0  0
   12.8290   -1.7452   22.6680 C   0  0  0  0  0  0  0  0  0  0  0  0
   13.6506   -0.8259   23.5820 C   0  0  0  0  0  0  0  0  0  0  0  0
   12.8320   -0.2011   24.7307 C   0  0  0  0  0  0  0  0  0  0  0  0
   11.3262   -0.3842   24.5665 C   0  0  0  0  0  0  0  0  0  0  0  0
    7.6010   -0.2715   21.3234 N   0  0  0  0  0  0  0  0  0  0  0  0
    6.9744    0.1657   20.1313 C   0  0  0  0  0  0  0  0  0  0  0  0
    5.7196    0.7649   20.2057 C   0  0  0  0  0  0  0  0  0  0  0  0
    5.1113    1.2180   19.0421 C   0  0  0  0  0  0  0  0  0  0  0  0
    5.7683    1.0533   17.8205 C   0  0  0  0  0  0  0  0  0  0  0  0
    6.9930    0.4662   17.7710 N   0  0  0  0  0  0  0  0  0  0  0  0
    7.6104    0.0253   18.8932 C   0  0  0  0  0  0  0  0  0  0  0  0
  1  2  2  0
  2  3  1  0
  3  4  1  0
  4  5  1  0
  5  6  1  0
  6  7  1  0
  7  8  1  0
  8  9  1  0
  2 10  1  0
 10 11  1  0
 11 12  2  0
 12 13  1  0
 13 14  2  0
 14 15  1  0
 15 16  2  0
  9  4  1  0
 11 16  1  0
M  END
>  <name>  (21) 
Mpro-x0678

$$$$

     RDKit          3D

 13 13  0  0  0  0  0  0  0  0999 V2000
    6.4713   -4.9573   26.5864 C   0  0  0  0  0  0  0  0  0  0  0  0
    8.0992   -4.3621   26.1682 S   0  0  0  0  0  6  0  0  0  0  0  0
    9.0635   -5.5080   26.0888 O   0  0  0  0  0  0  0  0  0  0  0  0
    8.5861   -3.4339   27.2393 O   0  0  0  0  0  0  0  0  0  0  0  0
    8.0119   -3.5186   24.6480 N   0  0  0  0  0  0  0  0  0  0  0  0
    9.3377   -3.0615   24.2340 C   0  0  0  0  0  0  0  0  0  0  0  0
    9.2320   -1.7838   23.3971 C   0  0  0  0  0  0  0  0  0  0  0  0
   10.5874   -1.1365   23.3602 C   0  0  0  0  0  0  0  0  0  0  0  0
   10.9034   -0.0890   24.2413 C   0  0  0  0  0  0  0  0  0  0  0  0
   12.2035    0.4200   24.2851 C   0  0  0  0  0  0  0  0  0  0  0  0
   13.1973   -0.1282   23.4705 C   0  0  0  0  0  0  0  0  0  0  0  0
   12.8929   -1.1842   22.6090 C   0  0  0  0  0  0  0  0  0  0  0  0
   11.5938   -1.6888   22.5552 C   0  0  0  0  0  0  0  0  0  0  0  0
  1  2  1  0
  2  3  2  0
  2  4  2  0
  2  5  1  0
  5  6  1  0
  6  7  1  0
  7  8  1  0
  8  9  2  0
  9 10  1  0
 10 11  2  0
 11 12  1  0
 12 13  2  0
  8 13  1  0
M  END
>  <name>  (22) 
Mpro-x0072

$$$$

     RDKit          3D

 13 14  0  0  0  0  0  0  0  0999 V2000
    9.2789   -4.2034   27.8295 O   0  0  0  0  0  0  0  0  0  0  0  0
    9.1747   -4.8621   26.5936 C   0  0  0  0  0  0  0  0  0  0  0  0
   10.4688   -4.7135   25.8044 C   0  0  0  0  0  0  0  0  0  0  0  0
   10.6893   -3.2651   25.3768 C   0  0  0  0  0  0  0  0  0  0  0  0
    9.5534   -2.7617   24.5739 N   0  0  0  0  0  0  0  0  0  0  0  0
    9.7504   -1.3535   24.1987 C   0  0  0  0  0  0  0  0  0  0  0  0
   11.1174   -1.0734   23.6290 C   0  0  0  0  0  0  0  0  0  0  0  0
   11.9682   -0.0699   24.1384 C   0  0  0  0  0  0  0  0  0  0  0  0
   13.1745    0.0301   23.4560 C   0  0  0  0  0  0  0  0  0  0  0  0
   13.1809   -1.1255   22.2411 S   0  0  0  0  0  0  0  0  0  0  0  0
   11.6624   -1.7663   22.5499 C   0  0  0  0  0  0  0  0  0  0  0  0
    8.2986   -2.8507   25.3501 C   0  0  0  0  0  0  0  0  0  0  0  0
    8.0145   -4.2879   25.7864 C   0  0  0  0  0  0  0  0  0  0  0  0
  1  2  1  0
  2  3  1  0
  3  4  1  0
  4  5  1  0
  5  6  1  0
  6  7  1  0
  7  8  1  0
  8  9  2  0
  9 10  1  0
 10 11  1  0
  5 12  1  0
 12 13  1  0
 13  2  1  0
  7 11  2  0
M  END
>  <name>  (23) 
Mpro-x0387

$$$$
